[TITLE]
;;Project Title/Notes
PPD2012220 - 14646 ouvrages de surverse 2012
reseaux mineurs eaux usees et pluviale tributaires du regulateur de l'Hopital U047
{Charles Berube - 2020.04.29} Modification à la vanne U055 Prince-Édouard, calibration du coefficient de débit sur l'événement du 13-14 avril 2020 ayant causé un déversement au collecteur St-André. Le coefficient trouvé est de 0.377, et l'ouverture de la vanne constante à 0.896m est donnée par la règle de contrôle associée à l'ouvrage.
{jimmy.asselin@tetratech.com - 2020.02.11} 40235TT_IREU_REV10_SM_V7_Ouv_200mm est intégré dans cette révision

[OPTIONS]
;;Option             Value
FLOW_UNITS           CMS
INFILTRATION         HORTON
FLOW_ROUTING         DYNWAVE
LINK_OFFSETS         ELEVATION
MIN_SLOPE            0
ALLOW_PONDING        YES
SKIP_STEADY_STATE    NO

START_DATE           06/19/2022
START_TIME           00:00:00
REPORT_START_DATE    06/19/2022
REPORT_START_TIME    00:00:00
END_DATE             07/19/2022
END_TIME             23:55:00
SWEEP_START          03/16
SWEEP_END            03/17
DRY_DAYS             0
REPORT_STEP          00:01:00
WET_STEP             00:01:00
DRY_STEP             00:01:00
ROUTING_STEP         0:00:05 
RULE_STEP            00:00:00

INERTIAL_DAMPING     PARTIAL
NORMAL_FLOW_LIMITED  BOTH
FORCE_MAIN_EQUATION  H-W
VARIABLE_STEP        0.75
LENGTHENING_STEP     2
MIN_SURFAREA         1.167
MAX_TRIALS           8
HEAD_TOLERANCE       0.0015
SYS_FLOW_TOL         5
LAT_FLOW_TOL         5
MINIMUM_STEP         0.5
THREADS              6

[EVAPORATION]
;;Data Source    Parameters
;;-------------- ----------------
CONSTANT         0.0
DRY_ONLY         NO

[RAINGAGES]
;;Name           Format    Interval SCF      Source    
;;-------------- --------- ------ ------ ----------
Raingage1        INTENSITY 0:10     1.0      TIMESERIES CC2A3H          

[SUBCATCHMENTS]
;;Name           Rain Gage        Outlet           Area     %Imperv  Width    %Slope   CurbLen  SnowPack        
;;-------------- ---------------- ---------------- -------- -------- -------- -------- -------- ----------------
;Calibré sur mesure 2004 (Ing. Préliminaire addenda 1)
11               Raingage1        R008130          7.83     32.5     250      1        0                        
500              Raingage1        1_308            1.08     100      17.4     2        0                        
;Sanitaire seulement
501              Raingage1        1_306            0        100      0        0        0                        
502              Raingage1        J43              16.5     30       350      2        0                        
;Sanitaire seulement
503              Raingage1        1_210            0        100      0        0        0                        
504              Raingage1        R030384          86.64    51.55    1949.999 2        0                        
505              Raingage1        J12              51       35.96    304      2        0                        
506              Raingage1        J31              221.19   30.48    1970     2        0                        
507              Raingage1        R-8_28           11.81    100      112      2        0                        
508              Raingage1        E-12-26-42       0.03     100      1.335    2        0                        
509              Raingage1        E-12-26-48       1.65     100      9.945    2        0                        
;Sanitaire seulement
510              Raingage1        E-12-26-60       0        100      0        0        0                        
;Sanitaire seulement
511              Raingage1        E-12-26-65       0        100      0        0        0                        
512              Raingage1        E-12-26-68       2.685    100      12.69    2        0                        
;Sanitaire seulement
513              Raingage1        E-12-26-69-8     0        100      0        0        0                        
;Sanitaire seulement
514              Raingage1        E-12-26-69-14D   0        100      0        0        0                        
515              Raingage1        R006023          0.225    100      1.66     2        0                        
516              Raingage1        J66              1.06     100      20.6     2        0                        
517              Raingage1        E-12-26-48       0.105    100      2.505    2        0                        
518              Raingage1        J57              4.104    100      26.1     2        0                        
519              Raingage1        R024928          1.95     100      11       2        0                        
;Sanitaire seulement
520              Raingage1        R015021          0        100      0        0        0                        
521              Raingage1        R015021          0.45     100      5.19     2        0                        
522              Raingage1        1_336            0.09     100      5.9      2        0                        
523              Raingage1        R030823          3.81     100      23       2        0                        
524              Raingage1        J64              1.65     100      21.6     2        0                        
525              Raingage1        R026169          7.6      100      58       2        0                        
526              Raingage1        R026169          2.58     100      27.89    2        0                        
527              Raingage1        R026169          10.1     100      47       2        0                        
528              Raingage1        J9               4.1      100      40.5     2        0                        
;Sanitaire seulement
529              Raingage1        E-12-50          0        100      0        0        0                        
530              Raingage1        E-12-57          0.03     100      1.7      2        0                        
531              Raingage1        E-12-64          0.509    100      6        2        0                        
532              Raingage1        E-12-67          0.4      100      6        2        0                        
533              Raingage1        E-12-75          0.081    100      4.3      2        0                        
534              Raingage1        E-12-85          3.087    100      41       2        0                        
535              Raingage1        E-12-31          6.29     100      70       2        0                        
536              Raingage1        E-12-57          1.8      100      10.6     2        0                        
537              Raingage1        E-12-75          0.09     100      3.2      2        0                        
;Sanitaire seulement
538              Raingage1        E-12-26-12       0        100      0        0        0                        
539              Raingage1        E-12-26-15       5.04     100      38.925   2        0                        
540              Raingage1        R043915          0.51     100      12.495   2        0                        
541              Raingage1        E-12-26-22       2.91     100      29.505   2        0                        
;Sanitaire seulement
542              Raingage1        E-12-44          0        100      0        0        0                        
543              Raingage1        R406727          1.89     100      23.85    2        0                        
544              Raingage1        E-12-40          2.13     100      25.26    2        0                        
545              Raingage1        R043792          0.93     100      16.8     2        0                        
546              Raingage1        E-12-36          1.32     100      16.68    2        0                        
;Fusion des bassins du secteur Maizerets
547              Raingage1        R522881          239.12   52.6     3542.519 0.5      0                        
548              Raingage1        R022467          1.207    66.3     80       0.5      0                        
549              Raingage1        E-12-25          21.89    100      0.05     2        0                        
;Sanitaire seulement
550              Raingage1        1_272            0        100      0        0        0                        
;Sanitaire seulement
551              Raingage1        1_156            0        100      0        0        0                        
552              Raingage1        1_198            0.33     100      11.5     2        0                        
553              Raingage1        1_218            0.46     100      13.6     2        0                        
554              Raingage1        1_238            0.83     100      18.2     2        0                        
555              Raingage1        1_266            0.26     100      10.2     2        0                        
556              Raingage1        J49              1.02     100      20.2     2        0                        
557              Raingage1        R032317          3.03     100      34.7     2        0                        
558              Raingage1        1_144            0.33     100      11.5     2        0                        
600              Raingage1        R014193          0.5      100      71       2        0                        
700              Raingage1        R006831          147.77   33.66    1787.501 4.25     0                        
701              Raingage1        R007862          17.22    36.72    263.45   0.6      0                        
702              Raingage1        R007996          29.46    56.288   677.344  1.33     0                        
703              Raingage1        R010053          12.26    54.583   270.938  10.06    0                        
704              Raingage1        R008610          31.83    62.259   785.718  0.63     0                        
705              Raingage1        R008393          12.18    63.964   776.508  0.2      0                        
706              Raingage1        R015502          22.94    46.907   298.031  1.52     0                        
;Sanitaire seulement
707              Raingage1        R015252          0        100      0        0        0                        
708              Raingage1        R015955          179.4    52.46    2438.438 4.67     0                        
709              Raingage1        R016822          34.14    92.95    426.324  1.63     0                        
710              Raingage1        R015979          37.91    63.617   2543.63  6.1      0                        
711              Raingage1        R016945          8.62     68.678   997.097  5.83     0                        
712              Raingage1        R014157          6.82     66.509   974.578  1.55     0                        
713              Raingage1        R014161          4.2      68.678   287.793  2.65     0                        
;Sanitaire seulement
714              Raingage1        RA_9306          0        100      0        0        0                        
715              Raingage1        R017559          40.52    56.388   872.099  5.37     0                        
716              Raingage1        R015869          13.76    77.91    970.566  0.72     0                        
717              Raingage1        R023686          9.1      98       304      0.3      0                        
718              Raingage1        R025415          70.42    62       3135.422 0.17     0                        
719              Raingage1        R023907          47.93    59.579   884.34   0.74     0                        
720              Raingage1        R024144          35.24    74.244   548.29   2.43     0                        
721              Raingage1        RA_276200        21.49    67.828   594.277  2.59     0                        
;Sanitaire seulement
726              Raingage1        R025300          0        100      0        0        0                        
727              Raingage1        R691075          32.95    33.15    1360.002 0.68     0                        
728              Raingage1        R697459          16.9     40.8     934.998  0.99     0                        
729              Raingage1        R023301          3.15     54.188   440.301  1.02     0                        
731              Raingage1        R023321          8.51     54.188   699.548  1.07     0                        
732              Raingage1        RA_207381        10.68    49.088   984.296  1.02     0                        
733              Raingage1        R643219          6.49     43.631   1035.996 7.86     0                        
734              Raingage1        R024634          9.05     62.001   1311.005 2.72     0                        
735              Raingage1        R024663          8.51     55.112   1035.998 1.43     0                        
736              Raingage1        R014032          29.54    68.125   2400.006 0.61     0                        
737              Raingage1        R025155          18.87    57.409   1370.002 0.81     0                        
738              Raingage1        R025143          16.82    55.877   1149.999 0.97     0                        
;Pointe-aux-Lièvres
739              Raingage1        R017536          32.3411  72.881   992.25   0.67     0                        
740              Raingage1        R560034          9.84     61.406   247.637  1.58     0                        
741              Raingage1        RA_11071         7.31     64.298   1280.008 0.35     0                        
742              Raingage1        R014967          27.71    67.36    1100     2.05     0                        
743              Raingage1        R015167          17.6     63.533   730      15.57    0                        
744              Raingage1        R014358          43.54    55.112   1750     2        0                        
745              Raingage1        R015189          40.78    58.174   623      2        0                        
746              Raingage1        R402575          6.5      62.001   68       2        0                        
747              Raingage1        R016134          26.59    53.582   520      2        0                        
748              Raingage1        R016141          6.35     58.174   100      10.17    0                        
749              Raingage1        R016137          1.61     61.236   91       12       0                        
750              Raingage1        R007281          2.1      100      289.999  2        0                        
751              Raingage1        R016878          5.55     45.927   259.999  3.4      0                        
;Sanitaire seulement
752              Raingage1        R016625          0        100      0        0        0                        
;Sanitaire seulement
753              Raingage1        R016624          0        100      0        0        0                        
754              Raingage1        R007637          0.4      100      78       2        0                        
755              Raingage1        R007637          0.488    100      78       2        0                        
756              Raingage1        RA_10563         24.27    42.865   1462.004 2        0                        
;Somme Q cst infilt et multp Q san de (757,758,765)
758              Raingage1        R061385          9.695508 83.194   241.467  1.729    0                        
;Calibré sur mesure 2004 (Ing. Préliminaire addenda 1)
759              Raingage1        R061762          29.32897 45.47    568.38   0.772    0                        
760              Raingage1        E-3-34-27        0.687629 100      8        2        0                        
761              Raingage1        R264641          38.906   80       672.35   2.12     0                        
762              Raingage1        E-3-34-18        0.258977 100      5        2        0                        
763              Raingage1        R007275          0.17     100      81.999   2        0                        
764              Raingage1        R016581          27.47    64.34    944.775  2.23     0                        
801              Raingage1        R690836          4.07     70       237.238  1.1      0                        
802              Raingage1        R022346          10.86    80       402.552  0.2      0                        
803              Raingage1        R025465          7.52     89       258.699  0.4      0                        
804              Raingage1        R024813          8.18     80       416.936  0.5      0                        
805              Raingage1        R024818          7.43     32.513   537.09   0.9      0                        
806              Raingage1        R024573          6.57     52.02    477.36   0.4      0                        
807              Raingage1        R025067          6.92     52.02    402.942  0.2      0                        
808              Raingage1        R025068          9.28     52.02    566.956  0.2      0                        
809              Raingage1        R021838          9.79     80       287.47   1.1      0                        
810              Raingage1        RA_14614         7.62     80       215.543  0.5      0                        
811              Raingage1        R024832          5.54     56.525   341.6    0.5      0                        
812              Raingage1        R024805          5.11     64.6     597.102  0.3      0                        
813              Raingage1        R024613          7.69     67.83    639.799  0.5      0                        
814              Raingage1        R025298          8.17     56.525   767.9    0.4      0                        
815              Raingage1        R025298          8.2      58.14    938.698  1.2      0                        
816              Raingage1        R003376          10.07    53.295   896.003  0.6      0                        
817              Raingage1        R003328          8.43     60.562   874.999  0.4      0                        
818              Raingage1        R003328          8.44     60.562   1215.893 0.3      0                        
819              Raingage1        R003287          8.57     56.525   1152.207 0.1      0                        
820              Raingage1        R003287          10.34    56.525   895.998  0.2      0                        
;Pluvial seulement
931              Raingage1        R024862          9.55     11.305   2133.601 0.7      0                        
;Pluvial seulement
934              Raingage1        R024579          10.74    68.638   1045.795 0.3      0                        
;Pluvial seulement
936              Raingage1        R003365          11.07    68.638   917.697  0.2      0                        
;Pluvial seulement
999              Raingage1        R014192          12       39.6     667.219  2        0                        

[SUBAREAS]
;;Subcatchment   N-Imperv   N-Perv     S-Imperv   S-Perv     PctZero    RouteTo    PctRouted 
;;-------------- ---------- ---------- ---------- ---------- ---------- ---------- ----------
11               0.013      0.25       1.6        4.7        0          OUTLET    
500              0.013      0.25       1.6        4.7        0          OUTLET    
501              0.013      0.25       1.6        4.7        0          OUTLET    
502              0.013      0.25       1.6        4.7        0          OUTLET    
503              0.013      0.25       1.6        4.7        0          OUTLET    
504              0.013      0.25       1.6        4.7        0          OUTLET    
505              0.013      0.25       1.6        4.7        0          OUTLET    
506              0.013      0.25       1.6        4.7        0          OUTLET    
507              0.013      0.25       1.6        4.7        0          OUTLET    
508              0.013      0.25       1.6        4.7        0          OUTLET    
509              0.013      0.25       1.6        4.7        0          OUTLET    
510              0.013      0.25       1.6        4.7        0          OUTLET    
511              0.013      0.25       1.6        4.7        0          OUTLET    
512              0.013      0.25       1.6        4.7        0          OUTLET    
513              0.013      0.25       1.6        4.7        0          OUTLET    
514              0.013      0.25       1.6        4.7        0          OUTLET    
515              0.013      0.25       1.6        4.7        0          OUTLET    
516              0.013      0.25       1.6        4.7        0          OUTLET    
517              0.013      0.25       1.6        4.7        0          OUTLET    
518              0.013      0.25       1.6        4.7        0          OUTLET    
519              0.013      0.25       1.6        4.7        0          OUTLET    
520              0.013      0.25       1.6        4.7        0          OUTLET    
521              0.013      0.25       1.6        4.7        0          OUTLET    
522              0.013      0.25       1.6        4.7        0          OUTLET    
523              0.013      0.25       1.6        4.7        0          OUTLET    
524              0.013      0.25       1.6        4.7        0          OUTLET    
525              0.013      0.25       1.6        4.7        0          OUTLET    
526              0.013      0.25       1.6        4.7        0          OUTLET    
527              0.013      0.25       1.6        4.7        0          OUTLET    
528              0.013      0.25       1.6        4.7        0          OUTLET    
529              0.013      0.25       1.6        4.7        0          OUTLET    
530              0.013      0.25       1.6        4.7        0          OUTLET    
531              0.013      0.25       1.6        4.7        0          OUTLET    
532              0.013      0.25       1.6        4.7        0          OUTLET    
533              0.013      0.25       1.6        4.7        0          OUTLET    
534              0.013      0.25       1.6        4.7        0          OUTLET    
535              0.013      0.25       1.6        4.7        0          OUTLET    
536              0.013      0.25       1.6        4.7        0          OUTLET    
537              0.013      0.25       1.6        4.7        0          OUTLET    
538              0.013      0.25       1.6        4.7        0          OUTLET    
539              0.013      0.25       1.6        4.7        0          OUTLET    
540              0.013      0.25       1.6        4.7        0          OUTLET    
541              0.013      0.25       1.6        4.7        0          OUTLET    
542              0.013      0.25       1.6        4.7        0          OUTLET    
543              0.013      0.25       1.6        4.7        0          OUTLET    
544              0.013      0.25       1.6        4.7        0          OUTLET    
545              0.013      0.25       1.6        4.7        0          OUTLET    
546              0.013      0.25       1.6        4.7        0          OUTLET    
547              0.013      0.25       1.6        4.7        0          OUTLET    
548              0.013      0.25       1.6        4.7        0          OUTLET    
549              0.013      0.25       1.6        4.7        0          OUTLET    
550              0.013      0.25       1.6        4.7        0          OUTLET    
551              0.013      0.25       1.6        4.7        0          OUTLET    
552              0.013      0.25       1.6        4.7        0          OUTLET    
553              0.013      0.25       1.6        4.7        0          OUTLET    
554              0.013      0.25       1.6        4.7        0          OUTLET    
555              0.013      0.25       1.6        4.7        0          OUTLET    
556              0.013      0.25       1.6        4.7        0          OUTLET    
557              0.013      0.25       1.6        4.7        0          OUTLET    
558              0.013      0.25       1.6        4.7        0          OUTLET    
600              0.013      0.25       1.6        4.7        25         OUTLET    
700              0.013      0.25       1.6        4.7        25         OUTLET    
701              0.013      0.25       1.6        4.7        25         OUTLET    
702              0.013      0.25       1.6        4.7        25         OUTLET    
703              0.013      0.25       1.6        4.7        25         OUTLET    
704              0.013      0.25       1.6        4.7        25         OUTLET    
705              0.013      0.25       1.6        4.7        25         OUTLET    
706              0.013      0.25       1.6        4.7        25         OUTLET    
707              0.013      0.25       1.6        4.7        0          OUTLET    
708              0.013      0.25       1.6        4.7        25         OUTLET    
709              0.013      0.25       1.6        4.7        25         OUTLET    
710              0.013      0.25       1.6        4.7        25         OUTLET    
711              0.013      0.25       1.6        4.7        25         OUTLET    
712              0.013      0.25       1.6        4.7        25         OUTLET    
713              0.013      0.25       1.6        4.7        25         OUTLET    
714              0.013      0.25       1.6        4.7        25         OUTLET    
715              0.013      0.25       1.6        4.7        25         OUTLET    
716              0.013      0.25       1.6        4.7        25         OUTLET    
717              0.013      0.25       1.6        4.7        0          OUTLET    
718              0.013      0.25       1.6        4.7        25         OUTLET    
719              0.013      0.25       1.6        4.7        25         OUTLET    
720              0.013      0.25       1.6        4.7        25         OUTLET    
721              0.013      0.25       1.6        4.7        25         OUTLET    
726              0.013      0.25       1.6        4.7        25         OUTLET    
727              0.013      0.25       1.6        4.7        25         OUTLET    
728              0.013      0.25       1.6        4.7        25         OUTLET    
729              0.013      0.25       1.6        4.7        25         OUTLET    
731              0.013      0.25       1.6        4.7        25         OUTLET    
732              0.013      0.25       1.6        4.7        25         OUTLET    
733              0.013      0.25       1.6        4.7        25         OUTLET    
734              0.013      0.25       1.6        4.7        25         OUTLET    
735              0.013      0.25       1.6        4.7        25         OUTLET    
736              0.013      0.25       1.6        4.7        25         OUTLET    
737              0.013      0.25       1.6        4.7        25         OUTLET    
738              0.013      0.25       1.6        4.7        25         OUTLET    
739              0.013      0.25       1.6        4.7        25         OUTLET    
740              0.013      0.25       1.6        4.7        25         OUTLET    
741              0.013      0.25       1.6        4.7        25         OUTLET    
742              0.013      0.25       1.6        4.7        25         OUTLET    
743              0.013      0.25       1.6        4.7        25         OUTLET    
744              0.013      0.25       1.6        4.7        25         OUTLET    
745              0.013      0.25       1.6        4.7        25         OUTLET    
746              0.013      0.25       1.6        4.7        25         OUTLET    
747              0.013      0.25       1.6        4.7        25         OUTLET    
748              0.013      0.25       1.6        4.7        25         OUTLET    
749              0.013      0.25       1.6        4.7        25         OUTLET    
750              0.013      0.25       1.6        4.7        0          OUTLET    
751              0.013      0.25       1.6        4.7        25         OUTLET    
752              0.013      0.25       1.6        4.7        25         OUTLET    
753              0.013      0.25       1.6        4.7        25         OUTLET    
754              0.013      0.25       1.6        4.7        0          OUTLET    
755              0.013      0.25       1.6        4.7        0          OUTLET    
756              0.013      0.25       1.6        4.7        25         OUTLET    
758              0.013      0.25       1.6        4.7        25         OUTLET    
759              0.013      0.25       1.6        4.7        25         OUTLET    
760              0.013      0.25       1.6        4.7        25         OUTLET    
761              0.013      0.25       1.6        4.7        25         OUTLET    
762              0.013      0.25       1.6        4.7        25         OUTLET    
763              0.013      0.25       1.6        4.7        0          OUTLET    
764              0.013      0.25       1.6        4.7        25         OUTLET    
801              0.013      0.25       1.6        4.7        25         OUTLET    
802              0.013      0.25       1.6        4.7        25         OUTLET    
803              0.013      0.25       1.6        4.7        25         OUTLET    
804              0.013      0.25       1.6        4.7        25         OUTLET    
805              0.013      0.25       1.6        4.7        25         OUTLET    
806              0.013      0.25       1.6        4.7        25         OUTLET    
807              0.013      0.25       1.6        4.7        25         OUTLET    
808              0.013      0.25       1.6        4.7        25         OUTLET    
809              0.013      0.25       1.6        4.7        25         OUTLET    